  Version,22.2;

  Timestep,6;

  LifeCycleCost:Parameters,
    Life Cycle Cost Parameters,  !- Name
    EndOfYear,               !- Discounting Convention
    ConstantDollar,          !- Inflation Approach
    0.03,                    !- Real Discount Rate
    ,                        !- Nominal Discount Rate
    ,                        !- Inflation
    ,                        !- Base Date Month
    2011,                    !- Base Date Year
    ,                        !- Service Date Month
    2011,                    !- Service Date Year
    25,                      !- Length of Study Period in Years
    ,                        !- Tax rate
    None;                    !- Depreciation Method

  LifeCycleCost:UsePriceEscalation,
    U.S. Avg  Commercial-Electricity,  !- LCC Price Escalation Name
    Electricity,             !- Resource
    2011,                    !- Escalation Start Year
    January,                 !- Escalation Start Month
    0.9838,                  !- Year 1 Escalation
    0.9730,                  !- Year 2 Escalation
    0.9632,                  !- Year 3 Escalation
    0.9611,                  !- Year 4 Escalation
    0.9571,                  !- Year 5 Escalation
    0.9553,                  !- Year 6 Escalation
    0.9539,                  !- Year 7 Escalation
    0.9521,                  !- Year 8 Escalation
    0.9546,                  !- Year 9 Escalation
    0.9550,                  !- <none>
    0.9553,                  !- <none>
    0.9564,                  !- <none>
    0.9575,                  !- <none>
    0.9596,                  !- <none>
    0.9618,                  !- <none>
    0.9614,                  !- <none>
    0.9618,                  !- <none>
    0.9618,                  !- <none>
    0.9593,                  !- <none>
    0.9589,                  !- <none>
    0.9607,                  !- <none>
    0.9625,                  !- <none>
    0.9650,                  !- <none>
    0.9708,                  !- <none>
    0.9751,                  !- <none>
    0.9762,                  !- <none>
    0.9766,                  !- <none>
    0.9766,                  !- <none>
    0.9769,                  !- <none>
    0.9773;                  !- <none>

  LifeCycleCost:UsePriceEscalation,
    U.S. Avg  Commercial-Distillate Oil,  !- LCC Price Escalation Name
    FuelOilNo1,              !- Resource
    2011,                    !- Escalation Start Year
    January,                 !- Escalation Start Month
    0.9714,                  !- Year 1 Escalation
    0.9730,                  !- Year 2 Escalation
    0.9942,                  !- Year 3 Escalation
    1.0164,                  !- Year 4 Escalation
    1.0541,                  !- Year 5 Escalation
    1.0928,                  !- Year 6 Escalation
    1.1267,                  !- Year 7 Escalation
    1.1580,                  !- Year 8 Escalation
    1.1792,                  !- Year 9 Escalation
    1.1967,                  !- <none>
    1.2200,                  !- <none>
    1.2333,                  !- <none>
    1.2566,                  !- <none>
    1.2709,                  !- <none>
    1.2826,                  !- <none>
    1.2985,                  !- <none>
    1.3102,                  !- <none>
    1.3250,                  !- <none>
    1.3261,                  !- <none>
    1.3282,                  !- <none>
    1.3324,                  !- <none>
    1.3356,                  !- <none>
    1.3431,                  !- <none>
    1.3510,                  !- <none>
    1.3568,                  !- <none>
    1.3606,                  !- <none>
    1.3637,                  !- <none>
    1.3674,                  !- <none>
    1.3706,                  !- <none>
    1.3743;                  !- <none>

  LifeCycleCost:UsePriceEscalation,
    U.S. Avg  Commercial-Residual Oil,  !- LCC Price Escalation Name
    FuelOilNo2,              !- Resource
    2011,                    !- Escalation Start Year
    January,                 !- Escalation Start Month
    0.8469,                  !- Year 1 Escalation
    0.8257,                  !- Year 2 Escalation
    0.8681,                  !- Year 3 Escalation
    0.8988,                  !- Year 4 Escalation
    0.9289,                  !- Year 5 Escalation
    0.9604,                  !- Year 6 Escalation
    0.9897,                  !- Year 7 Escalation
    1.0075,                  !- Year 8 Escalation
    1.0314,                  !- Year 9 Escalation
    1.0554,                  !- <none>
    1.0861,                  !- <none>
    1.1278,                  !- <none>
    1.1497,                  !- <none>
    1.1620,                  !- <none>
    1.1743,                  !- <none>
    1.1852,                  !- <none>
    1.1948,                  !- <none>
    1.2037,                  !- <none>
    1.2071,                  !- <none>
    1.2119,                  !- <none>
    1.2139,                  !- <none>
    1.2194,                  !- <none>
    1.2276,                  !- <none>
    1.2365,                  !- <none>
    1.2420,                  !- <none>
    1.2461,                  !- <none>
    1.2509,                  !- <none>
    1.2550,                  !- <none>
    1.2591,                  !- <none>
    1.2638;                  !- <none>

  LifeCycleCost:UsePriceEscalation,
    U.S. Avg  Commercial-Natural gas,  !- LCC Price Escalation Name
    NaturalGas,              !- Resource
    2011,                    !- Escalation Start Year
    January,                 !- Escalation Start Month
    0.9823,                  !- Year 1 Escalation
    0.9557,                  !- Year 2 Escalation
    0.9279,                  !- Year 3 Escalation
    0.9257,                  !- Year 4 Escalation
    0.9346,                  !- Year 5 Escalation
    0.9412,                  !- Year 6 Escalation
    0.9512,                  !- Year 7 Escalation
    0.9645,                  !- Year 8 Escalation
    0.9856,                  !- Year 9 Escalation
    1.0067,                  !- <none>
    1.0222,                  !- <none>
    1.0410,                  !- <none>
    1.0610,                  !- <none>
    1.0787,                  !- <none>
    1.0942,                  !- <none>
    1.1098,                  !- <none>
    1.1220,                  !- <none>
    1.1308,                  !- <none>
    1.1386,                  !- <none>
    1.1486,                  !- <none>
    1.1619,                  !- <none>
    1.1763,                  !- <none>
    1.1918,                  !- <none>
    1.2118,                  !- <none>
    1.2284,                  !- <none>
    1.2439,                  !- <none>
    1.2605,                  !- <none>
    1.2772,                  !- <none>
    1.2938,                  !- <none>
    1.3115;                  !- <none>

  LifeCycleCost:UsePriceEscalation,
    U.S. Avg  Commercial-Coal,  !- LCC Price Escalation Name
    Coal,                    !- Resource
    2011,                    !- Escalation Start Year
    January,                 !- Escalation Start Month
    0.9970,                  !- Year 1 Escalation
    1.0089,                  !- Year 2 Escalation
    1.0089,                  !- Year 3 Escalation
    0.9941,                  !- Year 4 Escalation
    0.9941,                  !- Year 5 Escalation
    1.0000,                  !- Year 6 Escalation
    1.0030,                  !- Year 7 Escalation
    1.0059,                  !- Year 8 Escalation
    1.0089,                  !- Year 9 Escalation
    1.0119,                  !- <none>
    1.0148,                  !- <none>
    1.0178,                  !- <none>
    1.0208,                  !- <none>
    1.0267,                  !- <none>
    1.0297,                  !- <none>
    1.0356,                  !- <none>
    1.0415,                  !- <none>
    1.0534,                  !- <none>
    1.0564,                  !- <none>
    1.0593,                  !- <none>
    1.0653,                  !- <none>
    1.0712,                  !- <none>
    1.0742,                  !- <none>
    1.0801,                  !- <none>
    1.0831,                  !- <none>
    1.0831,                  !- <none>
    1.0861,                  !- <none>
    1.0890,                  !- <none>
    1.0920,                  !- <none>
    1.0950;                  !- <none>

  Building,
    Building 1,              !- Name
    0,                       !- North Axis {deg}
    City,                    !- Terrain
    ,                        !- Loads Convergence Tolerance Value {W}
    ,                        !- Temperature Convergence Tolerance Value {deltaC}
    FullExteriorWithReflections,  !- Solar Distribution
    ,                        !- Maximum Number of Warmup Days
    ;                        !- Minimum Number of Warmup Days

  Zone,
    RL_Office_27214585,      !- Name
    0,                       !- Direction of Relative North {deg}
    0,                       !- X Origin {m}
    0,                       !- Y Origin {m}
    0,                       !- Z Origin {m}
    ,                        !- Type
    1,                       !- Multiplier
    ,                        !- Ceiling Height {m}
    ,                        !- Volume {m3}
    ,                        !- Floor Area {m2}
    ,                        !- Zone Inside Convection Algorithm
    ,                        !- Zone Outside Convection Algorithm
    Yes;                     !- Part of Total Floor Area

  BuildingSurface:Detailed,
    Face_6e0f74aa,           !- Name
    Floor,                   !- Surface Type
    Generic Interior Floor,  !- Construction Name
    RL_Office_27214585,      !- Zone Name
    ,                        !- Space Name
    Adiabatic,               !- Outside Boundary Condition
    ,                        !- Outside Boundary Condition Object
    NoSun,                   !- Sun Exposure
    NoWind,                  !- Wind Exposure
    ,                        !- View Factor to Ground
    ,                        !- Number of Vertices
    1.7746479222419,6.62307621135332,0,  !- X,Y,Z ==> Vertex 1 {m}
    5.3253520777581,4.57307621135332,0,  !- X,Y,Z ==> Vertex 2 {m}
    2.3253520777581,-0.623076211353316,0,  !- X,Y,Z ==> Vertex 3 {m}
    -1.2253520777581,1.42692378864668,0;  !- X,Y,Z ==> Vertex 4 {m}

  BuildingSurface:Detailed,
    Face_7e97331e,           !- Name
    Ceiling,                 !- Surface Type
    Generic Interior Ceiling,!- Construction Name
    RL_Office_27214585,      !- Zone Name
    ,                        !- Space Name
    Adiabatic,               !- Outside Boundary Condition
    ,                        !- Outside Boundary Condition Object
    NoSun,                   !- Sun Exposure
    NoWind,                  !- Wind Exposure
    ,                        !- View Factor to Ground
    ,                        !- Number of Vertices
    2.3253520777581,-0.623076211353316,3,  !- X,Y,Z ==> Vertex 1 {m}
    5.3253520777581,4.57307621135332,3,  !- X,Y,Z ==> Vertex 2 {m}
    1.7746479222419,6.62307621135332,3,  !- X,Y,Z ==> Vertex 3 {m}
    -1.2253520777581,1.42692378864668,3;  !- X,Y,Z ==> Vertex 4 {m}

  BuildingSurface:Detailed,
    Face_c1ff7b9b,           !- Name
    Wall,                    !- Surface Type
    Generic Interior Wall,   !- Construction Name
    RL_Office_27214585,      !- Zone Name
    ,                        !- Space Name
    Adiabatic,               !- Outside Boundary Condition
    ,                        !- Outside Boundary Condition Object
    NoSun,                   !- Sun Exposure
    NoWind,                  !- Wind Exposure
    ,                        !- View Factor to Ground
    ,                        !- Number of Vertices
    1.7746479222419,6.62307621135332,3,  !- X,Y,Z ==> Vertex 1 {m}
    1.7746479222419,6.62307621135332,0,  !- X,Y,Z ==> Vertex 2 {m}
    -1.2253520777581,1.42692378864668,0,  !- X,Y,Z ==> Vertex 3 {m}
    -1.2253520777581,1.42692378864668,3;  !- X,Y,Z ==> Vertex 4 {m}

  BuildingSurface:Detailed,
    Face_c385bd7c,           !- Name
    Wall,                    !- Surface Type
    Generic Interior Wall,   !- Construction Name
    RL_Office_27214585,      !- Zone Name
    ,                        !- Space Name
    Adiabatic,               !- Outside Boundary Condition
    ,                        !- Outside Boundary Condition Object
    NoSun,                   !- Sun Exposure
    NoWind,                  !- Wind Exposure
    ,                        !- View Factor to Ground
    ,                        !- Number of Vertices
    5.3253520777581,4.57307621135332,3,  !- X,Y,Z ==> Vertex 1 {m}
    5.3253520777581,4.57307621135332,0,  !- X,Y,Z ==> Vertex 2 {m}
    1.7746479222419,6.62307621135332,0,  !- X,Y,Z ==> Vertex 3 {m}
    1.7746479222419,6.62307621135332,3;  !- X,Y,Z ==> Vertex 4 {m}

  BuildingSurface:Detailed,
    Face_dccb8c96,           !- Name
    Wall,                    !- Surface Type
    Generic Interior Wall,   !- Construction Name
    RL_Office_27214585,      !- Zone Name
    ,                        !- Space Name
    Adiabatic,               !- Outside Boundary Condition
    ,                        !- Outside Boundary Condition Object
    NoSun,                   !- Sun Exposure
    NoWind,                  !- Wind Exposure
    ,                        !- View Factor to Ground
    ,                        !- Number of Vertices
    2.3253520777581,-0.623076211353316,3,  !- X,Y,Z ==> Vertex 1 {m}
    2.3253520777581,-0.623076211353316,0,  !- X,Y,Z ==> Vertex 2 {m}
    5.3253520777581,4.57307621135332,0,  !- X,Y,Z ==> Vertex 3 {m}
    5.3253520777581,4.57307621135332,3;  !- X,Y,Z ==> Vertex 4 {m}

  BuildingSurface:Detailed,
    Face_e42d7c6a,           !- Name
    Wall,                    !- Surface Type
    wall_stock,              !- Construction Name
    RL_Office_27214585,      !- Zone Name
    ,                        !- Space Name
    Outdoors,                !- Outside Boundary Condition
    ,                        !- Outside Boundary Condition Object
    SunExposed,              !- Sun Exposure
    WindExposed,             !- Wind Exposure
    ,                        !- View Factor to Ground
    ,                        !- Number of Vertices
    -1.2253520777581,1.42692378864668,3,  !- X,Y,Z ==> Vertex 1 {m}
    -1.2253520777581,1.42692378864668,0,  !- X,Y,Z ==> Vertex 2 {m}
    2.3253520777581,-0.623076211353316,0,  !- X,Y,Z ==> Vertex 3 {m}
    2.3253520777581,-0.623076211353316,3;  !- X,Y,Z ==> Vertex 4 {m}

  FenestrationSurface:Detailed,
    Window_1,                !- Name
    Window,                  !- Surface Type
    ShadedWindowConstruction_add79a08,            !- Construction Name
    Face_e42d7c6a,           !- Building Surface Name
    ,                        !- Outside Boundary Condition Object
    ,                        !- View Factor to Ground
    ,                        !- Frame and Divider Name
    ,                        !- Multiplier
    ,                        !- Number of Vertices
    -1.12672140677154,1.36997934420224,2.8,  !- X,Y,Z ==> Vertex 1 {m}
    -1.12672140677154,1.36997934420224,1,  !- X,Y,Z ==> Vertex 2 {m}
    -0.140414696905928,0.800534899757795,1,  !- X,Y,Z ==> Vertex 3 {m}
    -0.140414696905928,0.800534899757795,2.8;  !- X,Y,Z ==> Vertex 4 {m}

  FenestrationSurface:Detailed,
    Window_2,                !- Name
    Window,                  !- Surface Type
    ShadedWindowConstruction_add79a08,            !- Construction Name
    Face_e42d7c6a,           !- Building Surface Name
    ,                        !- Outside Boundary Condition Object
    ,                        !- View Factor to Ground
    ,                        !- Frame and Divider Name
    ,                        !- Multiplier
    ,                        !- Number of Vertices
    0.0568466450671941,0.686646010868906,2.8,  !- X,Y,Z ==> Vertex 1 {m}
    0.0568466450671941,0.686646010868906,1,  !- X,Y,Z ==> Vertex 2 {m}
    1.0431533549328,0.117201566424462,1,  !- X,Y,Z ==> Vertex 3 {m}
    1.0431533549328,0.117201566424462,2.8;  !- X,Y,Z ==> Vertex 4 {m}

  FenestrationSurface:Detailed,
    Window_3,                !- Name
    Window,                  !- Surface Type
    ShadedWindowConstruction_add79a08,            !- Construction Name
    Face_e42d7c6a,           !- Building Surface Name
    ,                        !- Outside Boundary Condition Object
    ,                        !- View Factor to Ground
    ,                        !- Frame and Divider Name
    ,                        !- Multiplier
    ,                        !- Number of Vertices
    1.24041469690593,0.00331267753557302,2.8,  !- X,Y,Z ==> Vertex 1 {m}
    1.24041469690593,0.00331267753557302,1,  !- X,Y,Z ==> Vertex 2 {m}
    2.22672140677154,-0.566131766908871,1,  !- X,Y,Z ==> Vertex 3 {m}
    2.22672140677154,-0.566131766908871,2.8;  !- X,Y,Z ==> Vertex 4 {m}

  ZoneControl:Thermostat,
    RL_Office_27214585 Thermostat,  !- Name
    RL_Office_27214585,      !- Zone or ZoneList Name
    RL_Office_27214585 Thermostat Schedule,  !- Control Type Schedule Name
    ThermostatSetpoint:DualSetpoint,  !- Control 1 Object Type
    Thermostat Setpoint Dual Setpoint 1,  !- Control 1 Name
    ,                        !- Control 2 Object Type
    ,                        !- Control 2 Name
    ,                        !- Control 3 Object Type
    ,                        !- Control 3 Name
    ,                        !- Control 4 Object Type
    ,                        !- Control 4 Name
    0;                       !- Temperature Difference Between Cutout And Setpoint {deltaC}

  Schedule:Compact,
    RL_Office_27214585 Thermostat Schedule,  !- Name
    RL_Office_27214585 Thermostat Schedule Type Limits,  !- Schedule Type Limits Name
    Through: 12/31,          !- Field 1
    For: AllDays,            !- Field 2
    Until: 24:00,4;          !- Field 3

  ScheduleTypeLimits,
    RL_Office_27214585 Thermostat Schedule Type Limits,  !- Name
    0,                       !- Lower Limit Value
    4,                       !- Upper Limit Value
    DISCRETE;                !- Numeric Type

  ThermostatSetpoint:DualSetpoint,
    Thermostat Setpoint Dual Setpoint 1,  !- Name
    SeasonalSchedule_610b18b8,  !- Heating Setpoint Temperature Schedule Name
    setpoint_cooling;     !- Cooling Setpoint Temperature Schedule Name

  ScheduleTypeLimits,
    Temperature,             !- Name
    -273.15,                 !- Lower Limit Value
    ,                        !- Upper Limit Value
    Continuous,              !- Numeric Type
    temperature;             !- Unit Type

  Schedule:Day:Interval,
    Schedule Day 4,          !- Name
    Temperature,             !- Schedule Type Limits Name
    No,                      !- Interpolate to Timestep
    24:00,                   !- Time 1
    18;                      !- Value Until Time 1

  Schedule:Day:Interval,
    Schedule Day 3,          !- Name
    Temperature,             !- Schedule Type Limits Name
    No,                      !- Interpolate to Timestep
    07:00,                   !- Time 1
    18,                      !- Value Until Time 1
    19:00,                   !- Time 2
    20,                      !- Value Until Time 2
    24:00,                   !- Time 3
    18;                      !- Value Until Time 3

  Schedule:Day:Interval,
    Schedule Day 5,          !- Name
    Temperature,             !- Schedule Type Limits Name
    No,                      !- Interpolate to Timestep
    07:00,                   !- Time 1
    18,                      !- Value Until Time 1
    19:00,                   !- Time 2
    20,                      !- Value Until Time 2
    24:00,                   !- Time 3
    18;                      !- Value Until Time 3

  Schedule:Day:Interval,
    setpoint_heating_real_Sunday,  !- Name
    Temperature,             !- Schedule Type Limits Name
    No,                      !- Interpolate to Timestep
    24:00,                   !- Time 1
    18;                      !- Value Until Time 1

  Schedule:Week:Daily,
    SeasonalSchedule_610b18b8 Week Rule - Jan1-Apr29,  !- Name
    Schedule Day 4,          !- Sunday Schedule:Day Name
    Schedule Day 3,          !- Monday Schedule:Day Name
    Schedule Day 3,          !- Tuesday Schedule:Day Name
    Schedule Day 3,          !- Wednesday Schedule:Day Name
    Schedule Day 3,          !- Thursday Schedule:Day Name
    Schedule Day 3,          !- Friday Schedule:Day Name
    Schedule Day 4,          !- Saturday Schedule:Day Name
    setpoint_heating_real_Hol 1,  !- Holiday Schedule:Day Name
    setpoint_heating_real_Monday_SmrDsn 1,  !- SummerDesignDay Schedule:Day Name
    setpoint_heating_real_Monday_SmrDsn_WntrDsn 1,  !- WinterDesignDay Schedule:Day Name
    setpoint_heating_real_Sunday,  !- CustomDay1 Schedule:Day Name
    setpoint_heating_real_Sunday;  !- CustomDay2 Schedule:Day Name

  Schedule:Week:Daily,
    SeasonalSchedule_610b18b8 Week Rule - Apr30-May6,  !- Name
    Schedule Day 4,          !- Sunday Schedule:Day Name
    Schedule Day 5,          !- Monday Schedule:Day Name
    Schedule Day 5,          !- Tuesday Schedule:Day Name
    Schedule Day 5,          !- Wednesday Schedule:Day Name
    Schedule Day 5,          !- Thursday Schedule:Day Name
    Schedule Day 5,          !- Friday Schedule:Day Name
    setpoint_heating_real_Sunday,  !- Saturday Schedule:Day Name
    setpoint_heating_real_Hol 1,  !- Holiday Schedule:Day Name
    setpoint_heating_real_Monday_SmrDsn 1,  !- SummerDesignDay Schedule:Day Name
    setpoint_heating_real_Monday_SmrDsn_WntrDsn 1,  !- WinterDesignDay Schedule:Day Name
    setpoint_heating_real_Sunday,  !- CustomDay1 Schedule:Day Name
    setpoint_heating_real_Sunday;  !- CustomDay2 Schedule:Day Name

  Schedule:Day:Interval,
    Schedule Day 2,          !- Name
    Temperature,             !- Schedule Type Limits Name
    No,                      !- Interpolate to Timestep
    24:00,                   !- Time 1
    -100;                    !- Value Until Time 1

  Schedule:Week:Daily,
    SeasonalSchedule_610b18b8 Week Rule - May7-May27,  !- Name
    setpoint_heating_real_Sunday,  !- Sunday Schedule:Day Name
    Schedule Day 5,          !- Monday Schedule:Day Name
    Schedule Day 5,          !- Tuesday Schedule:Day Name
    Schedule Day 5,          !- Wednesday Schedule:Day Name
    Schedule Day 5,          !- Thursday Schedule:Day Name
    Schedule Day 5,          !- Friday Schedule:Day Name
    setpoint_heating_real_Sunday,  !- Saturday Schedule:Day Name
    setpoint_heating_real_Hol 1,  !- Holiday Schedule:Day Name
    setpoint_heating_real_Monday_SmrDsn 1,  !- SummerDesignDay Schedule:Day Name
    setpoint_heating_real_Monday_SmrDsn_WntrDsn 1,  !- WinterDesignDay Schedule:Day Name
    setpoint_heating_real_Sunday,  !- CustomDay1 Schedule:Day Name
    setpoint_heating_real_Sunday;  !- CustomDay2 Schedule:Day Name

  Schedule:Week:Daily,
    SeasonalSchedule_610b18b8 Week Rule - May28-Jun3,  !- Name
    setpoint_heating_real_Sunday,  !- Sunday Schedule:Day Name
    Schedule Day 5,          !- Monday Schedule:Day Name
    Schedule Day 5,          !- Tuesday Schedule:Day Name
    Schedule Day 5,          !- Wednesday Schedule:Day Name
    Schedule Day 2,          !- Thursday Schedule:Day Name
    Schedule Day 2,          !- Friday Schedule:Day Name
    Schedule Day 2,          !- Saturday Schedule:Day Name
    setpoint_heating_real_Hol 1,  !- Holiday Schedule:Day Name
    setpoint_heating_real_Monday_SmrDsn 1,  !- SummerDesignDay Schedule:Day Name
    setpoint_heating_real_Monday_SmrDsn_WntrDsn 1,  !- WinterDesignDay Schedule:Day Name
    setpoint_heating_real_Sunday,  !- CustomDay1 Schedule:Day Name
    setpoint_heating_real_Sunday;  !- CustomDay2 Schedule:Day Name

  Schedule:Week:Daily,
    SeasonalSchedule_610b18b8 Week Rule - Jun4-Sep30,  !- Name
    Schedule Day 2,          !- Sunday Schedule:Day Name
    Schedule Day 2,          !- Monday Schedule:Day Name
    Schedule Day 2,          !- Tuesday Schedule:Day Name
    Schedule Day 2,          !- Wednesday Schedule:Day Name
    Schedule Day 2,          !- Thursday Schedule:Day Name
    Schedule Day 2,          !- Friday Schedule:Day Name
    Schedule Day 2,          !- Saturday Schedule:Day Name
    setpoint_heating_real_Hol 1,  !- Holiday Schedule:Day Name
    setpoint_heating_real_Monday_SmrDsn 1,  !- SummerDesignDay Schedule:Day Name
    setpoint_heating_real_Monday_SmrDsn_WntrDsn 1,  !- WinterDesignDay Schedule:Day Name
    setpoint_heating_real_Sunday,  !- CustomDay1 Schedule:Day Name
    setpoint_heating_real_Sunday;  !- CustomDay2 Schedule:Day Name

  Schedule:Week:Daily,
    SeasonalSchedule_610b18b8 Week Rule - Oct1-Dec31,  !- Name
    setpoint_heating_real_Sunday,  !- Sunday Schedule:Day Name
    Schedule Day 5,          !- Monday Schedule:Day Name
    Schedule Day 5,          !- Tuesday Schedule:Day Name
    Schedule Day 5,          !- Wednesday Schedule:Day Name
    Schedule Day 5,          !- Thursday Schedule:Day Name
    Schedule Day 5,          !- Friday Schedule:Day Name
    setpoint_heating_real_Sunday,  !- Saturday Schedule:Day Name
    setpoint_heating_real_Hol 1,  !- Holiday Schedule:Day Name
    setpoint_heating_real_Monday_SmrDsn 1,  !- SummerDesignDay Schedule:Day Name
    setpoint_heating_real_Monday_SmrDsn_WntrDsn 1,  !- WinterDesignDay Schedule:Day Name
    setpoint_heating_real_Sunday,  !- CustomDay1 Schedule:Day Name
    setpoint_heating_real_Sunday;  !- CustomDay2 Schedule:Day Name

  Schedule:Year,
    SeasonalSchedule_610b18b8,  !- Name
    Temperature,             !- Schedule Type Limits Name
    SeasonalSchedule_610b18b8 Week Rule - Jan1-Apr29,  !- Schedule:Week Name 1
    1,                       !- Start Month 1
    1,                       !- Start Day 1
    4,                       !- End Month 1
    29,                      !- End Day 1
    SeasonalSchedule_610b18b8 Week Rule - Apr30-May6,  !- Schedule:Week Name 2
    4,                       !- Start Month 2
    30,                      !- Start Day 2
    5,                       !- End Month 2
    6,                       !- End Day 2
    SeasonalSchedule_610b18b8 Week Rule - May7-May27,  !- Schedule:Week Name 3
    5,                       !- Start Month 3
    7,                       !- Start Day 3
    5,                       !- End Month 3
    27,                      !- End Day 3
    SeasonalSchedule_610b18b8 Week Rule - May28-Jun3,  !- Schedule:Week Name 4
    5,                       !- Start Month 4
    28,                      !- Start Day 4
    6,                       !- End Month 4
    3,                       !- End Day 4
    SeasonalSchedule_610b18b8 Week Rule - Jun4-Sep30,  !- Schedule:Week Name 5
    6,                       !- Start Month 5
    4,                       !- Start Day 5
    9,                       !- End Month 5
    30,                      !- End Day 5
    SeasonalSchedule_610b18b8 Week Rule - Oct1-Dec31,  !- Schedule:Week Name 6
    10,                      !- Start Month 6
    1,                       !- Start Day 6
    12,                      !- End Month 6
    31;                      !- End Day 6

  Schedule:Day:Interval,
    setpoint_heating_real_Monday_SmrDsn 1,  !- Name
    Temperature,             !- Schedule Type Limits Name
    No,                      !- Interpolate to Timestep
    07:00,                   !- Time 1
    18,                      !- Value Until Time 1
    19:00,                   !- Time 2
    20,                      !- Value Until Time 2
    24:00,                   !- Time 3
    18;                      !- Value Until Time 3

  Schedule:Day:Interval,
    setpoint_heating_real_Monday_SmrDsn_WntrDsn 1,  !- Name
    Temperature,             !- Schedule Type Limits Name
    No,                      !- Interpolate to Timestep
    24:00,                   !- Time 1
    18;                      !- Value Until Time 1

  Schedule:Day:Interval,
    setpoint_heating_real_Hol 1,  !- Name
    Temperature,             !- Schedule Type Limits Name
    No,                      !- Interpolate to Timestep
    24:00,                   !- Time 1
    18;                      !- Value Until Time 1

  Schedule:Day:Interval,
    setpoint_cooling_Sunday,  !- Name
    Temperature,             !- Schedule Type Limits Name
    No,                      !- Interpolate to Timestep
    24:00,                   !- Time 1
    100;                     !- Value Until Time 1

  Schedule:Day:Interval,
    Schedule Day 1,          !- Name
    Temperature,             !- Schedule Type Limits Name
    No,                      !- Interpolate to Timestep
    07:00,                   !- Time 1
    100,                     !- Value Until Time 1
    19:00,                   !- Time 2
    50,                      !- Value Until Time 2
    24:00,                   !- Time 3
    100;                     !- Value Until Time 3

  Schedule:Week:Daily,
    setpoint_cooling Week Rule - Jan1-Dec31,  !- Name
    setpoint_cooling_Sunday,  !- Sunday Schedule:Day Name
    Schedule Day 1,          !- Monday Schedule:Day Name
    Schedule Day 1,          !- Tuesday Schedule:Day Name
    Schedule Day 1,          !- Wednesday Schedule:Day Name
    Schedule Day 1,          !- Thursday Schedule:Day Name
    Schedule Day 1,          !- Friday Schedule:Day Name
    setpoint_cooling_Sunday,  !- Saturday Schedule:Day Name
    setpoint_cooling_Hol 1,  !- Holiday Schedule:Day Name
    setpoint_cooling_Sunday_SmrDsn 1,  !- SummerDesignDay Schedule:Day Name
    setpoint_cooling_Sunday_SmrDsn_WntrDsn 1,  !- WinterDesignDay Schedule:Day Name
    setpoint_cooling_Sunday,  !- CustomDay1 Schedule:Day Name
    setpoint_cooling_Sunday;  !- CustomDay2 Schedule:Day Name

  Schedule:Year,
    setpoint_cooling,     !- Name
    Temperature,             !- Schedule Type Limits Name
    setpoint_cooling Week Rule - Jan1-Dec31,  !- Schedule:Week Name 1
    1,                       !- Start Month 1
    1,                       !- Start Day 1